tests/data/power_flow/pandapower-symmetric-transformer/pgm_sym_output.json
{
  "node": [
    {
      "id": 1,
      "energized": 1,
      "u_pu": 0.9999999969039837,
      "u": 10499.999967491829,
      "u_angle": -1.0746104342459958e-08
    },
    {
      "id": 2,
      "energized": 1,
      "u_pu": 0.9996953845007687,
      "u": 399.8781538003075,
      "u_angle": 0.5225737459282158
    }
  ],
  "source": [
    {
      "id": 7,
      "energized": 1,
      "p": 11000.83856427839,
      "q": 2011.373923834764,
      "i": 0.6149168037998789,
      "s": 11183.20500477377,
      "pf": 0.9836928286285074
    }
  ],
  "sym_load": [
    {
      "id": 6,
      "energized": 1,
      "p": 10000.0,
      "q": 2000.0,
      "i": 14.724086628878927,
      "s": 10198.03902718557,
      "pf": 0.9805806756909201
    }
  ],
  "transformer": [
    {
      "id": 3,
      "energized": 1,
      "loading": 0.011183205018642622,
      "p_from": 11000.838560164466,
      "q_from": 2011.3740234456943,
      "i_from": 0.6149168045624679,
      "s_from": 11183.205018642622,
      "p_to": -9999.999999998188,
      "q_to": -2000.0000000006314,
      "i_to": 14.724086628876542,
      "s_to": 10198.039027183917
    },
    {
      "id": 4,
      "energized": 0,
      "loading": 0.0,
      "p_from": 0.0,
      "q_from": 0.0,
      "i_from": 0.0,
      "s_from": 0.0,
      "p_to": 0.0,
      "q_to": 0.0,
      "i_to": 0.0,
      "s_to": 0.0
    },
    {
      "id": 5,
      "energized": 0,
      "loading": 0.0,
      "p_from": 0.0,
      "q_from": 0.0,
      "i_from": 0.0,
      "s_from": 0.0,
      "p_to": 0.0,
      "q_to": 0.0,
      "i_to": 0.0,
      "s_to": 0.0
    }
  ]
}