tests/data/power_flow/pandapower-symmetric-transformer/sym_output.json
{
  "node": [
    {
      "id": 1,
      "u_pu": 0.999999996903959,
      "u": 10499.99996749157,
      "u_angle": -1.0746099118180307e-08
    },
    {
      "id": 2,
      "u_pu": 0.9996954080097401,
      "u": 399.87816320389607,
      "u_angle": 0.522573736072036
    }
  ],
  "source": [
    {
      "id": 7,
      "p": 11000.835819065558,
      "q": 2011.3990096187845,
      "i": 0.6149169034025775,
      "s": 11183.2068162013
    }
  ],
  "sym_load": [
    {
      "id": 6,
      "p": 10000.0,
      "q": 2000.0
    }
  ]
}